This is our rough draft for the project.
New line.

